.SUBCKT POT 1 2 3 VALUE=100K SET=0.5
    RT 1 2 {VALUE*(1-SET)+.001}
    RB 2 3 {VALUE*SET+.001}
.ENDS
